<routes>
    <vType accel="1.0" decel="5.0" id="Car" length="5.0" maxSpeed="5.0" sigma="0.0" />

    <route id="route0" edges="n1n2 n2n3 n3n4 n4n5 n5n6" />
    <vehicle depart="0" id="veh0" route="route0" type="Car" />
    <route id="route1" edges="n1n2 n2n7 n7n8 n8n9 n9n10 n10n4 n4n5 n5n6" />
    <vehicle depart="0" id="veh1" route="route1" type="Car" />
    <route id="route2" edges="n1n2 n2n11 n11n12 n12n13 n13n14 n14n5 n5n6" />
    <vehicle depart="0" id="veh2" route="route2" type="Car" />
</routes>